*Heading
8H Test - Block under self-weight
*Part, name=BLOCK
*Node
1, 0.0, 0.0, 0.0
2, 1.0, 0.0, 0.0
3, 1.0, 1.0, 0.0
4, 0.0, 1.0, 0.0
5, 0.0, 0.0, 1.0
6, 1.0, 0.0, 1.0
7, 1.0, 1.0, 1.0
8, 0.0, 1.0, 1.0
*Element, type=C3D8R
1, 1, 2, 3, 4, 5, 6, 7, 8
*Solid Section, elset=BLOCK-SET, material=STEEL
*End Part
*Assembly, name=Assembly
*Instance, name=BLOCK-1, part=BLOCK
*End Instance
*Nset, nset=SET-BOTTOM, instance=BLOCK-1
1, 2, 3, 4
*End Assembly
*Material, name=STEEL
*Density
7800.0
*Elastic
2.0e11, 0.3
*Boundary
SET-BOTTOM, 1, 3
*Step, name=GRAVITY
*Static
*Dload
BLOCK-1, GRAV, 9.81, 0, 0, -1
*End Step
