*Heading
Bar Test - Vertical bar under self-weight
*Part, name=BAR
*Node
1, 0.0, 0.0, 0.0
2, 0.0, 0.0, 1.0
*Element, type=T3D2
1, 1, 2
*Solid Section, elset=BAR-SET, material=STEEL
0.01
*End Part
*Assembly, name=Assembly
*Instance, name=BAR-1, part=BAR
*End Instance
*Nset, nset=SET-FIX, instance=BAR-1
1
*Nset, nset=SET-TIP, instance=BAR-1
2
*End Assembly
*Material, name=STEEL
*Density
7800.0
*Elastic
2.0e11, 0.3
*Boundary
SET-FIX, 1, 3
SET-TIP, 1, 2
*Step, name=GRAVITY
*Static
*Dload
BAR-1, GRAV, 9.81, 0, 0, -1
*End Step
